/*--------------------------------*- C++ -*----------------------------------*\
| =========                 |                                                 |
| \\      /  F ield         | OpenFOAM: The Open Source CFD Toolbox           |
|  \\    /   O peration     | Version:  v1606+                                |
|   \\  /    A nd           | Web:      www.OpenFOAM.com                      |
|    \\/     M anipulation  |                                                 |
\*---------------------------------------------------------------------------*/
FoamFile
{
    version     2.0;
    format      ascii;
    class       volVectorField;
    object      U;
}
// * * * * * * * * * * * * * * * * * * * * * * * * * * * * * * * * * * * * * //

dimensions      [0 1 -1 0 0 0 0];

internalField   uniform (0 0 0.1);

boundaryField
{
    lateral_boundary
    {
        type            pressureInletOutletVelocity;
        value           uniform (0 0 0);
    }

    
    orifice
    {
        type            turbulentInlet;
        fluctuationScale (0.0001 0.0001 0.0001);
        referenceField  uniform (0 0 1);
        alpha           0.1;
        value           uniform (0 0 1);
    }
    
	
    inflow_boundary
    {
        type            noSlip;
    }

    outflow_boundary
    {
        type            pressureInletOutletVelocity;
        value           uniform (0 0 0);
    }
}

// ************************************************************************* //
